models/179bus_psse/wecc179_noRE_v32.raw
0,   100.00,  32, 0, 1, 60.00     / PSS(R)E 32 RAW created by rawd32  TUE, NOV 16 2021   0:38
                               100.0

     1,'BURNS2      ', 500.0000,1,   1,   1,   1,1.09388, -22.1404
     2,'CORONADO    ', 500.0000,1,   1,   1,   1,0.99209, -27.4784
     3,'CHOLLA      ', 345.0000,1,   1,   1,   1,0.97851, -18.3901
     4,'CORONADO    ',  20.0000,2,   1,   1,   1,1.04000, -20.7412
     5,'CRAIG       ', 345.0000,1,   1,   1,   1,0.95371,  18.2340
     6,'CRAIG       ',  22.0000,2,   1,   1,   1,0.95000,  25.6765
     7,'FOURCORN    ', 500.0000,1,   1,   1,   1,0.99021,  -9.4312
     8,'FOURCORN    ', 345.0000,1,   1,   1,   1,0.99460,  -5.8593
     9,'FCNGN4CC    ',  22.0000,2,   1,   1,   1,1.00000,   1.1590
    10,'FOURCORN    ', 230.0000,1,   1,   1,   1,0.99269,  -6.4187
    11,'HAYDEN      ',  20.0000,2,   1,   1,   1,1.00000,  36.0885
    12,'NAVAJO      ', 500.0000,1,   2,   1,   1,0.99242, -46.0406
    13,'NAVAJO 2    ',  26.0000,2,   2,   1,   1,1.00000, -39.9160
    14,'MOENKOPI    ', 500.0000,1,   2,   1,   1,1.01440, -43.6787
    15,'PALOVRD2    ',  24.0000,2,   2,   1,   1,0.96000, -54.2574
    16,'PALOVRDE    ', 500.0000,1,   2,   1,   1,0.96495, -62.0562
    17,'SAN JUAN    ', 345.0000,1,   1,   1,   1,1.00707,  -4.8536
    18,'SJUAN G4    ',  22.0000,2,   1,   1,   1,1.00000,  -1.9095
    19,'WESTWING    ', 500.0000,1,   2,   1,   1,1.00128, -61.4362
    20,'NAVAJO1     ', 500.0000,1,   2,   1,   1,1.00220, -45.5799
    21,'NAVAJO2     ', 500.0000,1,   2,   1,   1,1.01455, -44.1805
    22,'NAVAJO3     ', 500.0000,1,   2,   1,   1,1.01812, -48.4863
    23,'NAVAJO4     ', 500.0000,1,   2,   1,   1,1.02810, -59.3616
    24,'MOENKOP1    ', 500.0000,1,   2,   1,   1,1.01998, -46.2166
    25,'MOENKOP2    ', 500.0000,1,   2,   1,   1,1.01416, -58.9911
    26,'MOENKOP3    ', 500.0000,1,   2,   1,   1,1.02745, -47.6864
    27,'MOENKOP4    ', 500.0000,1,   2,   1,   1,0.99355, -58.5844
    28,'FOURCOR1    ', 500.0000,1,   1,   1,   1,0.98449, -12.0948
    29,'FOURCOR2    ', 500.0000,1,   1,   1,   1,1.00703, -39.8771
    30,'CANAD G1    ',  20.0000,2,   1,   1,   1,1.00000,  26.6851
    31,'CANADA      ', 500.0000,1,   1,   1,   1,0.98434,  22.8853
    32,'CANALB      ', 500.0000,1,   1,   1,   1,0.97691,  56.3851
    33,'CA230TO     ', 230.0000,1,   1,   1,   1,0.97602,  61.0004
    34,'CA230       ', 230.0000,1,   1,   1,   1,1.00082,  70.0580
    35,'CMAIN GM    ',  20.0000,2,   1,   1,   1,1.02000,  74.9794
    36,'BRIDGER2    ',  22.0000,2,   1,   1,   1,1.00900,  16.4071
    37,'ADELANTO    ', 500.0000,1,   2,   1,   1,0.93792, -85.6234
    38,'ADELAN&1    ', 500.0000,1,   2,   1,   1,0.93762, -90.5961
    39,'CASTAIC     ', 230.0000,1,   2,   1,   1,0.94684, -85.6757
    40,'CASTAI4G    ',  18.0000,2,   2,   1,   1,1.02000, -69.5196
    41,'GLENDAL     ', 230.0000,1,   2,   1,   1,0.92061, -95.2449
    42,'HAYNES      ', 230.0000,1,   2,   1,   1,0.94145, -92.5807
    43,'HAYNES3G    ',  18.0000,2,   2,   1,   1,1.00000, -84.4547
    44,'INTERMT     ', 345.0000,1,   1,   1,   1,0.95597,  -1.2834
    45,'INTERM1G    ',  26.0000,2,   1,   1,   1,1.05000,   3.5521
    46,'OLIVE       ', 230.0000,1,   2,   1,   1,0.93385, -91.8352
    47,'OWENS G     ',  11.5000,2,   2,   1,   1,1.02000, -62.8757
    48,'RINALDI     ', 230.0000,1,   2,   1,   1,0.93377, -92.4387
    49,'RINALDI     ', 500.0000,1,   2,   1,   1,0.94071, -89.2851
    50,'RIVER       ', 230.0000,1,   2,   1,   1,0.92131, -95.6462
    51,'STA B       ', 138.0000,1,   2,   1,   1,0.91562, -96.2373
    52,'STA B1      ', 287.0000,1,   2,   1,   1,0.91990, -95.0598
    53,'STA B2      ', 287.0000,1,   2,   1,   1,0.91959, -95.0556
    54,'STA BLD     ', 230.0000,1,   2,   1,   1,0.91722, -96.2234
    55,'STA E       ', 230.0000,1,   2,   1,   1,0.92223, -94.5570
    56,'STA E       ', 500.0000,1,   2,   1,   1,0.92584, -91.9062
    57,'STA F       ', 230.0000,1,   2,   1,   1,0.92049, -95.7434
    58,'STA G       ', 230.0000,1,   2,   1,   1,0.92148, -95.2725
    59,'STA J       ', 230.0000,1,   2,   1,   1,0.92994, -93.4406
    60,'SYLMARLA    ', 230.0000,1,   2,   1,   1,0.93795, -92.5733
    61,'SYLMAR S    ', 230.0000,1,   2,   1,   1,0.93820, -92.8657
    62,'VALLEY      ', 230.0000,1,   2,   1,   1,0.92791, -93.6825
    63,'VICTORVL    ', 287.0000,1,   2,   1,   1,0.94520, -89.0063
    64,'VICTORVL    ', 500.0000,1,   2,   1,   1,0.94004, -84.9863
    65,'MONTA G1    ',  20.0000,2,   1,   1,   1,1.00000,  62.5696
    66,'MONTANA     ', 500.0000,1,   1,   1,   1,0.94474,  54.4503
    67,'BIG EDDY    ', 115.0000,1,   1,   1,   1,1.02549, -18.5194
    68,'BIG EDDY    ', 230.0000,1,   1,   1,   1,1.03567, -15.9378
    69,'BIG EDDY    ', 500.0000,1,   1,   1,   1,1.02921, -14.6975
    70,'DALLES21    ',  13.8000,2,   1,   1,   1,1.05500,  -8.0512
    71,'CELILO      ', 230.0000,1,   1,   1,   1,1.02993, -16.4950
    72,'CELILOCA    ', 500.0000,1,   1,   1,   1,1.02983, -14.8130
    73,'COLSTRP     ', 500.0000,1,   1,   1,   1,1.09349, -14.1746
    74,'COULEE      ', 500.0000,1,   1,   1,   1,1.00920,  -0.1835
    75,'GARRISON    ', 500.0000,1,   1,   1,   1,1.04138, -13.6294
    76,'JOHN DAY    ', 500.0000,1,   1,   1,   1,1.01831, -12.2564
    77,'JOHN DAY    ',  13.8000,3,   1,   1,   1,1.00000,   0.0000
    78,'HANFORD     ', 500.0000,1,   1,   1,   1,0.98983,  -0.1223
    79,'NORTH G3    ',  20.0000,2,   1,   1,   1,1.02000,  27.1546
    80,'NORTH       ', 500.0000,1,   1,   1,   1,0.99620,  13.1387
    81,'BURNS       ', 500.0000,1,   1,   1,   1,1.18980, -15.0441
    82,'GRIZZLY     ', 500.0000,1,   1,   1,   1,1.05276, -20.9872
    83,'MALIN       ', 500.0000,1,   1,   1,   1,1.05538, -33.7541
    84,'MIDPOINT    ', 500.0000,1,   1,   1,   1,1.03164,   9.7759
    85,'MIDPOINT    ', 345.0000,1,   1,   1,   1,1.00877,  12.4173
    86,'SUMMER L    ', 500.0000,1,   1,   1,   1,1.09020, -25.9235
    87,'GRIZZLY1    ', 500.0000,1,   1,   1,   1,1.06594, -22.2222
    88,'GRIZZLY2    ', 500.0000,1,   1,   1,   1,1.08175, -24.3081
    89,'MALIN1      ', 500.0000,1,   1,   1,   1,1.07614, -29.3295
    90,'MALIN2      ', 500.0000,1,   1,   1,   1,1.08780, -26.6610
    91,'GRIZZLY3    ', 500.0000,1,   1,   1,   1,1.05624, -24.5062
    92,'GRIZZLY4    ', 500.0000,1,   1,   1,   1,1.06605, -26.7315
    93,'GRIZZLY5    ', 500.0000,1,   1,   1,   1,1.07139, -29.1426
    94,'GRIZZLY6    ', 500.0000,1,   1,   1,   1,1.06710, -31.2459
    95,'GRIZZLY7    ', 500.0000,1,   1,   1,   1,1.05096, -23.5930
    96,'GRIZZLY8    ', 500.0000,1,   1,   1,   1,1.05409, -26.1310
    97,'GRIZZLY9    ', 500.0000,1,   1,   1,   1,1.05201, -28.7150
    98,'GRIZZLYA    ', 500.0000,1,   1,   1,   1,1.05688, -31.2160
    99,'BURNS1      ', 500.0000,1,   1,   1,   1,1.10967,   0.4304
   100,'CORTINA     ', 200.0000,1,   3,   1,   1,0.98352, -68.6375
   101,'COTWDPGE    ', 200.0000,1,   3,   1,   1,1.01982, -57.0267
   102,'DIABLO      ', 500.0000,1,   2,   1,   1,1.03480, -86.4226
   103,'DIABLO1     ',  25.0000,2,   2,   1,   1,0.98000, -82.7351
   104,'GATES       ', 500.0000,1,   2,   1,   1,1.07053, -87.5402
   105,'GLENN       ', 200.0000,1,   3,   1,   1,1.00381, -62.9852
   106,'LOGAN CR    ', 200.0000,1,   3,   1,   1,0.99985, -63.9305
   107,'LOSBANOS    ', 500.0000,1,   2,   1,   1,1.06033, -89.8553
   108,'MIDWAY      ', 500.0000,1,   2,   1,   1,1.05459, -89.2717
   109,'MIDWAY      ', 200.0000,1,   2,   1,   1,1.05999, -92.0964
   110,'MOSSLAND    ', 500.0000,1,   2,   1,   1,1.05886, -90.1172
   111,'OLINDA      ', 500.0000,1,   3,   1,   1,1.03118, -53.0966
   112,'ROUND MT    ',  20.0000,2,   3,   1,   1,1.02000, -39.4990
   113,'ROUND MT    ', 200.0000,1,   3,   1,   1,1.03482, -48.9144
   114,'ROUND MT    ', 500.0000,1,   3,   1,   1,1.03474, -48.2888
   115,'TABLE MT    ', 500.0000,1,   3,   1,   1,0.99805, -59.3872
   116,'TEVATR      ',  20.0000,2,   3,   1,   1,1.05000, -69.1904
   117,'TEVATR      ', 200.0000,1,   3,   1,   1,0.98846, -73.1978
   118,'TEVATR2     ',  20.0000,2,   3,   1,   1,1.00000, -59.7103
   119,'TEVATR      ', 500.0000,1,   3,   1,   1,0.95400, -72.1813
   120,'OLINDA1     ', 500.0000,1,   3,   1,   1,1.03046, -53.4464
   121,'OLINDA2     ', 500.0000,1,   3,   1,   1,1.01138, -60.3839
   122,'OLINDA3     ', 500.0000,1,   3,   1,   1,0.99330, -63.9931
   123,'OLINDA4     ', 500.0000,1,   3,   1,   1,0.95428, -72.1424
   124,'ROUND1      ', 500.0000,1,   3,   1,   1,1.03370, -48.7183
   125,'ROUND2      ', 500.0000,1,   3,   1,   1,0.99887, -59.0830
   126,'ROUND3      ', 500.0000,1,   3,   1,   1,1.03370, -48.7183
   127,'ROUND4      ', 500.0000,1,   3,   1,   1,0.99887, -59.0830
   128,'TABLE1      ', 500.0000,1,   3,   1,   1,0.99794, -59.4270
   129,'TABLE2      ', 500.0000,1,   3,   1,   1,0.95423, -72.1388
   130,'TABLE3      ', 500.0000,1,   3,   1,   1,0.99664, -59.7880
   131,'TABLE4      ', 500.0000,1,   3,   1,   1,0.95447, -72.0009
   132,'TEVATR1     ', 500.0000,1,   2,   1,   1,0.97057, -74.2871
   133,'TEVATR2     ', 500.0000,1,   2,   1,   1,1.05370, -88.9644
   134,'TEVATR3     ', 500.0000,1,   2,   1,   1,0.98214, -76.0211
   135,'GATES1      ', 500.0000,1,   2,   1,   1,1.06448, -88.5965
   136,'DEVERS      ', 500.0000,1,   2,   1,   1,0.93390, -80.8733
   137,'EAGLROCK    ', 230.0000,1,   2,   1,   1,0.95102, -96.0468
   138,'ELDORADO    ',  20.0000,2,   2,   1,   1,1.02000, -32.8085
   139,'ELDORADO    ', 500.0000,1,   2,   1,   1,0.94920, -62.5992
   140,'LITEHIPE    ',  20.0000,2,   2,   1,   1,1.02000, -92.0295
   141,'LITEHIPE    ', 230.0000,1,   2,   1,   1,0.98589, -98.4772
   142,'LUGO        ', 500.0000,1,   2,   1,   1,0.96620, -87.0885
   143,'MESA CAL    ', 230.0000,1,   2,   1,   1,0.97207, -97.6689
   144,'MIRALOMA    ',  20.0000,2,   2,   1,   1,1.05000, -86.5148
   145,'MIRALOMA    ', 500.0000,1,   2,   1,   1,0.97662, -91.0993
   146,'MIRALOMA    ', 230.0000,1,   2,   1,   1,0.97629, -91.6537
   147,'MOHAVE      ', 500.0000,1,   2,   1,   1,1.00784, -61.1736
   148,'MOHAV1CC    ',  22.0000,2,   2,   1,   1,1.05000, -52.7630
   149,'PARDEE      ',  20.0000,2,   2,   1,   1,1.01000, -70.0122
   150,'PARDEE      ', 230.0000,1,   2,   1,   1,0.94592, -92.0816
   151,'SERRANO     ', 500.0000,1,   2,   1,   1,0.96408, -91.1952
   152,'VALLEY      ', 500.0000,1,   2,   1,   1,0.94465, -87.2461
   153,'VINCENT     ', 500.0000,1,   2,   1,   1,0.99770, -90.5140
   154,'VINCENT     ', 230.0000,1,   2,   1,   1,0.99165, -93.1321
   155,'CAMP WIL    ', 345.0000,1,   1,   1,   1,1.03216,   1.5870
   156,'BENLOMND    ', 345.0000,1,   1,   1,   1,1.02670,   2.5524
   157,'BENLOMND    ', 230.0000,1,   1,   1,   1,1.01818,   1.9685
   158,'EMERY       ', 345.0000,1,   1,   1,   1,1.05933,   7.9678
   159,'EMERY       ',  20.0000,2,   1,   1,   1,1.05000,  12.6651
   160,'MONA        ', 345.0000,1,   1,   1,   1,1.01464,   1.2178
   161,'NAUGHTON    ', 230.0000,1,   1,   1,   1,0.99007,   7.0906
   162,'NAUGHT      ',  20.0000,2,   1,   1,   1,1.00000,   9.8876
   163,'PINTO PS    ', 345.0000,1,   1,   1,   1,1.03988,  -2.3176
   164,'PINTO       ', 345.0000,1,   1,   1,   1,1.05100,  -0.7127
   165,'SPAN FRK    ', 345.0000,1,   1,   1,   1,1.03493,   2.6801
   166,'SIGURD      ', 345.0000,1,   1,   1,   1,1.04310,   2.6593
   167,'TERMINAL    ', 345.0000,1,   1,   1,   1,1.02601,   1.1848
   168,'MALIN3      ', 500.0000,1,   3,   1,   1,1.04751, -37.0472
   169,'MALIN4      ', 500.0000,1,   3,   1,   1,1.03551, -47.9530
   170,'MALIN5      ', 500.0000,1,   3,   1,   1,1.04706, -37.3904
   171,'MALIN6      ', 500.0000,1,   3,   1,   1,1.03550, -47.9804
   172,'MALIN7      ', 500.0000,1,   3,   1,   1,1.05449, -37.4509
   173,'MALIN8      ', 500.0000,1,   3,   1,   1,1.04511, -49.4011
   174,'MIDWAY1     ', 500.0000,1,   2,   1,   1,1.05333, -89.5575
   175,'MIDWAY2     ', 500.0000,1,   2,   1,   1,1.02008, -90.3244
   176,'MIDWAY3     ', 500.0000,1,   2,   1,   1,1.05334, -89.5596
   177,'MIDWAY4     ', 500.0000,1,   2,   1,   1,1.02008, -90.3253
   178,'MIDWAY5     ', 500.0000,1,   2,   1,   1,1.05169, -89.5636
   179,'MIDWAY6     ', 500.0000,1,   2,   1,   1,1.01793, -90.3296
 0 /End of Bus data, Begin Load data
     1,'1 ',1,   1,   1,   300.000,   426.000,     0.000,     0.000,     0.000,     0.000,   1,1
     2,'BL',1,   1,   1,  1750.000,    56.000,     0.000,     0.000,     0.000,     0.000,   1,1
     4,'BL',1,   1,   1,   100.000,    10.000,     0.000,     0.000,     0.000,     0.000,   1,1
     5,'BL',1,   1,   1,  2350.000,   127.000,     0.000,     0.000,     0.000,     0.000,   1,1
     6,'BL',1,   1,   1,   100.000,   210.000,     0.000,     0.000,     0.000,     0.000,   1,1
     8,'BL',1,   1,   1,   239.000,   170.000,     0.000,     0.000,     0.000,     0.000,   1,1
     9,'BL',1,   1,   1,   100.000,   110.000,     0.000,     0.000,     0.000,     0.000,   1,1
    10,'BL',1,   1,   1,   139.700,    23.800,     0.000,     0.000,     0.000,     0.000,   1,1
    11,'BL',1,   1,   1,   100.000,    10.000,     0.000,     0.000,     0.000,     0.000,   1,1
    12,'BL',1,   2,   1,    90.000,   260.000,     0.000,     0.000,     0.000,     0.000,   1,1
    13,'BL',1,   2,   1,   100.000,    80.000,     0.000,     0.000,     0.000,     0.000,   1,1
    15,'BL',1,   2,   1,   100.000,   250.000,     0.000,     0.000,     0.000,     0.000,   1,1
    16,'BL',1,   2,   1,   793.400,   350.000,     0.000,     0.000,     0.000,     0.000,   1,1
    17,'BL',1,   1,   1,   840.000,     5.000,     0.000,     0.000,     0.000,     0.000,   1,1
    18,'BL',1,   1,   1,   100.000,   210.000,     0.000,     0.000,     0.000,     0.000,   1,1
    19,'BL',1,   2,   1,   617.000,    69.000,     0.000,     0.000,     0.000,     0.000,   1,1
    30,'BL',1,   1,   1,   100.000,    10.000,     0.000,     0.000,     0.000,     0.000,   1,1
    31,'BL',1,   1,   1,  4400.000,  1000.000,     0.000,     0.000,     0.000,     0.000,   1,1
    34,'BL',1,   1,   1,  3600.000,   700.000,     0.000,     0.000,     0.000,     0.000,   1,1
    35,'BL',1,   1,   1,   100.000,    10.000,     0.000,     0.000,     0.000,     0.000,   1,1
    36,'BL',1,   1,   1,   100.000,    10.000,     0.000,     0.000,     0.000,     0.000,   1,1
    37,'BL',1,   2,   1,   262.000,   971.000,     0.000,     0.000,     0.000,     0.000,   1,1
    40,'BL',1,   2,   1,   100.000,    60.000,     0.000,     0.000,     0.000,     0.000,   1,1
    41,'BL',1,   2,   1,   135.000,    27.000,     0.000,     0.000,     0.000,     0.000,   1,1
    43,'BL',1,   2,   1,   100.000,    30.000,     0.000,     0.000,     0.000,     0.000,   1,1
    44,'BL',1,   1,   1,  2053.000,   907.100,     0.000,     0.000,     0.000,     0.000,   1,1
    45,'BL',1,   1,   1,   100.000,    10.000,     0.000,     0.000,     0.000,     0.000,   1,1
    46,'BL',1,   2,   1,    72.800,    17.000,     0.000,     0.000,     0.000,     0.000,   1,1
    47,'BL',1,   2,   1,   100.000,    20.000,     0.000,     0.000,     0.000,     0.000,   1,1
    48,'BL',1,   2,   1,   121.000,   105.000,     0.000,     0.000,     0.000,     0.000,   1,1
    50,'BL',1,   2,   1,   320.000,    65.000,     0.000,     0.000,     0.000,     0.000,   1,1
    51,'BL',1,   2,   1,   237.200,    63.200,     0.000,     0.000,     0.000,     0.000,   1,1
    54,'BL',1,   2,   1,   138.000,    28.000,     0.000,     0.000,     0.000,     0.000,   1,1
    55,'BL',1,   2,   1,   807.800,   132.100,     0.000,     0.000,     0.000,     0.000,   1,1
    57,'BL',1,   2,   1,   117.000,    24.000,     0.000,     0.000,     0.000,     0.000,   1,1
    58,'BL',1,   2,   1,   121.000,    25.000,     0.000,     0.000,     0.000,     0.000,   1,1
    59,'BL',1,   2,   1,   887.700,    50.000,     0.000,     0.000,     0.000,     0.000,   1,1
    60,'BL',1,   2,   1,    71.000,  1654.000,     0.000,     0.000,     0.000,     0.000,   1,1
    61,'BL',1,   2,   1,   401.000,    80.600,     0.000,     0.000,     0.000,     0.000,   1,1
    62,'BL',1,   2,   1,   205.200,    17.600,     0.000,     0.000,     0.000,     0.000,   1,1
    63,'BL',1,   2,   1,    29.000,   140.200,     0.000,     0.000,     0.000,     0.000,   1,1
    65,'BL',1,   1,   1,   100.000,    10.000,     0.000,     0.000,     0.000,     0.000,   1,1
    66,'BL',1,   1,   1,  1700.000,   300.000,     0.000,     0.000,     0.000,     0.000,   1,1
    67,'BL',1,   1,   1,   160.000,    31.250,     0.000,     0.000,     0.000,     0.000,   1,1
    68,'BL',1,   1,   1,    67.500,   160.000,     0.000,     0.000,     0.000,     0.000,   1,1
    69,'BL',1,   1,   1,    44.200,    22.000,     0.000,     0.000,     0.000,     0.000,   1,1
    70,'BL',1,   1,   1,   100.000,    10.000,     0.000,     0.000,     0.000,     0.000,   1,1
    71,'BL',1,   1,   1,  3137.000,  1681.000,     0.000,     0.000,     0.000,     0.000,   1,1
    73,'BL',1,   1,   1,    25.000,    50.000,     0.000,     0.000,     0.000,     0.000,   1,1
    75,'BL',1,   1,   1,  1084.000,   394.000,     0.000,     0.000,     0.000,     0.000,   1,1
    76,'BL',1,   1,   1,  3200.000,  1100.000,     0.000,     0.000,     0.000,     0.000,   1,1
    77,'BL',1,   1,   1,   100.000,    10.000,     0.000,     0.000,     0.000,     0.000,   1,1
    78,'BL',1,   1,   1,  3500.000,   500.000,     0.000,     0.000,     0.000,     0.000,   1,1
    79,'BL',1,   1,   1,   100.000,    10.000,     0.000,     0.000,     0.000,     0.000,   1,1
    80,'BL',1,   1,   1,  5000.000,   400.000,     0.000,     0.000,     0.000,     0.000,   1,1
    82,'BL',1,   1,   1,    66.600,   100.000,     0.000,     0.000,     0.000,     0.000,   1,1
    83,'BL',1,   1,   1,    39.000,    50.000,     0.000,     0.000,     0.000,     0.000,   1,1
    85,'BL',1,   1,   1,   610.000,   400.000,     0.000,     0.000,     0.000,     0.000,   1,1
    91,'1 ',1,   1,   1,   200.000,   100.000,     0.000,     0.000,     0.000,     0.000,   1,1
   100,'BL',1,   3,   1,    43.300,    20.000,     0.000,     0.000,     0.000,     0.000,   1,1
   101,'BL',1,   3,   1,   210.400,    25.000,     0.000,     0.000,     0.000,     0.000,   1,1
   102,'BL',1,   2,   1,    50.000,    25.000,     0.000,     0.000,     0.000,     0.000,   1,1
   103,'BL',1,   2,   1,   100.000,   650.000,     0.000,     0.000,     0.000,     0.000,   1,1
   104,'BL',1,   2,   1,   305.000,    10.000,     0.000,     0.000,     0.000,     0.000,   1,1
   105,'BL',1,   3,   1,    27.500,    10.000,     0.000,     0.000,     0.000,     0.000,   1,1
   106,'BL',1,   3,   1,     8.010,    10.000,     0.000,     0.000,     0.000,     0.000,   1,1
   107,'BL',1,   2,   1,   265.000,    14.000,     0.000,     0.000,     0.000,     0.000,   1,1
   108,'BL',1,   2,   1,    55.600,   100.000,     0.000,     0.000,     0.000,     0.000,   1,1
   109,'BL',1,   2,   1,   777.600,    32.600,     0.000,     0.000,     0.000,     0.000,   1,1
   110,'BL',1,   2,   1,    40.000,    21.500,     0.000,     0.000,     0.000,     0.000,   1,1
   111,'BL',1,   3,   1,    50.000,    61.500,     0.000,     0.000,     0.000,     0.000,   1,1
   112,'BL',1,   3,   1,   100.000,    10.000,     0.000,     0.000,     0.000,     0.000,   1,1
   113,'BL',1,   3,   1,   148.000,    10.000,     0.000,     0.000,     0.000,     0.000,   1,1
   115,'BL',1,   3,   1,     1.000,   118.500,     0.000,     0.000,     0.000,     0.000,   1,1
   116,'BL',1,   3,   1,   100.000,    10.000,     0.000,     0.000,     0.000,     0.000,   1,1
   117,'BL',1,   3,   1,   884.000,    54.800,     0.000,     0.000,     0.000,     0.000,   1,1
   118,'BL',1,   3,   1,   100.000,    10.000,     0.000,     0.000,     0.000,     0.000,   1,1
   119,'BL',1,   3,   1,  5661.000,  3491.000,     0.000,     0.000,     0.000,     0.000,   1,1
   136,'BL',1,   2,   1,   856.000,    19.600,     0.000,     0.000,     0.000,     0.000,   1,1
   137,'BL',1,   2,   1,   175.000,    18.000,     0.000,     0.000,     0.000,     0.000,   1,1
   138,'BL',1,   2,   1,   100.000,   110.000,     0.000,     0.000,     0.000,     0.000,   1,1
   139,'BL',1,   2,   1,   902.300,    11.400,     0.000,     0.000,     0.000,     0.000,   1,1
   140,'BL',1,   2,   1,   100.000,    10.000,     0.000,     0.000,     0.000,     0.000,   1,1
   141,'BL',1,   2,   1,  3191.000,   630.000,     0.000,     0.000,     0.000,     0.000,   1,1
   142,'BL',1,   2,   1,   204.200,    28.200,     0.000,     0.000,     0.000,     0.000,   1,1
   143,'BL',1,   2,   1,   377.400,    64.500,     0.000,     0.000,     0.000,     0.000,   1,1
   144,'BL',1,   2,   1,   100.000,    10.000,     0.000,     0.000,     0.000,     0.000,   1,1
   145,'BL',1,   2,   1,  3098.000,  1189.000,     0.000,     0.000,     0.000,     0.000,   1,1
   148,'BL',1,   2,   1,   100.000,    10.000,     0.000,     0.000,     0.000,     0.000,   1,1
   149,'BL',1,   2,   1,   100.000,    10.000,     0.000,     0.000,     0.000,     0.000,   1,1
   150,'BL',1,   2,   1,  3118.000,    78.000,     0.000,     0.000,     0.000,     0.000,   1,1
   151,'BL',1,   2,   1,  1230.000,    72.800,     0.000,     0.000,     0.000,     0.000,   1,1
   152,'BL',1,   2,   1,   406.000,    41.000,     0.000,     0.000,     0.000,     0.000,   1,1
   154,'BL',1,   2,   1,  1066.000,    30.000,     0.000,     0.000,     0.000,     0.000,   1,1
   155,'BL',1,   1,   1,   457.700,    81.700,     0.000,     0.000,     0.000,     0.000,   1,1
   156,'BL',1,   1,   1,    33.900,    11.900,     0.000,     0.000,     0.000,     0.000,   1,1
   157,'BL',1,   1,   1,   148.000,    20.000,     0.000,     0.000,     0.000,     0.000,   1,1
   158,'BL',1,   1,   1,   116.100,    38.400,     0.000,     0.000,     0.000,     0.000,   1,1
   159,'BL',1,   1,   1,   100.000,   410.000,     0.000,     0.000,     0.000,     0.000,   1,1
   160,'BL',1,   1,   1,    62.000,    12.800,     0.000,     0.000,     0.000,     0.000,   1,1
   161,'BL',1,   1,   1,   255.000,   100.000,     0.000,     0.000,     0.000,     0.000,   1,1
   162,'BL',1,   1,   1,   100.000,    10.000,     0.000,     0.000,     0.000,     0.000,   1,1
   164,'BL',1,   1,   1,    31.600,    11.500,     0.000,     0.000,     0.000,     0.000,   1,1
   165,'BL',1,   1,   1,   141.200,    71.400,     0.000,     0.000,     0.000,     0.000,   1,1
   166,'BL',1,   1,   1,   379.000,    43.000,     0.000,     0.000,     0.000,     0.000,   1,1
   167,'BL',1,   1,   1,   185.000,    78.500,     0.000,     0.000,     0.000,     0.000,   1,1
 0 /End of Load data, Begin Fixed shunt data
    17,'1 ',1,     0.000,   390.000
    19,'1 ',1,     0.000,   427.000
    37,'1 ',1,     0.000,   912.000
    44,'1 ',1,     0.000,   430.000
    60,'1 ',1,     0.000,  2146.000
    63,'1 ',1,     0.000,   200.000
    66,'1 ',1,     0.000,   200.000
    68,'1 ',1,     0.000,  1076.850
    71,'1 ',1,     0.000,   792.000
    72,'1 ',1,     0.000,   462.000
    73,'1 ',1,     0.000,   200.000
    75,'1 ',1,     0.000,   100.000
    76,'1 ',1,     0.000,  1019.350
    78,'1 ',1,     0.000,   550.000
    80,'1 ',1,     0.000,  1200.000
    81,'1 ',1,     0.000,   220.000
    82,'1 ',1,     0.000,   100.000
    83,'1 ',1,     0.000,    50.000
    84,'1 ',1,     0.000,    20.000
    85,'1 ',1,     0.000,   100.000
   101,'1 ',1,     0.000,   100.000
   104,'1 ',1,     0.000,   350.000
   109,'1 ',1,     0.000,   130.000
   113,'1 ',1,     0.000,   128.000
   114,'1 ',1,     0.000,    91.000
   115,'1 ',1,     0.000,    91.000
   117,'1 ',1,     0.000,    32.000
   119,'1 ',1,     0.000,  2000.000
   139,'1 ',1,     0.000,   219.000
   145,'1 ',1,     0.000,   500.000
   147,'1 ',1,     0.000,   196.000
   154,'1 ',1,     0.000,   190.000
   155,'1 ',1,     0.000,    60.000
   158,'1 ',1,     0.000,   220.000
   164,'1 ',1,     0.000,    18.000
   166,'1 ',1,     0.000,    50.000
 0 /End of Fixed shunt data, Begin Generator data
     4,'1 ',   800.000,   338.477,  3000.000,  -300.000,1.04000,     0,  1600.000, 0.00000E+0, 2.50000E-1, 0.00000E+0, 0.00000E+0,1.00000,1,  100.0,  9999.000,     0.000,   1,1.0000
     6,'1 ',  1048.000,   242.230,   400.000,  -400.000,0.95000,     0,  2100.000, 0.00000E+0, 2.50000E-1, 0.00000E+0, 0.00000E+0,1.00000,1,  100.0,  9999.000,     0.000,   1,1.0000
     9,'1 ',  2160.000,   325.744,   700.000,  -500.000,1.00000,     0,  4300.000, 0.00000E+0, 2.50000E-1, 0.00000E+0, 0.00000E+0,1.00000,1,  100.0,  9999.000,     0.000,   1,1.0000
    11,'1 ',  2050.000,   622.858,   900.000,  -900.000,1.00000,     0,  4100.000, 0.00000E+0, 2.50000E-1, 0.00000E+0, 0.00000E+0,1.00000,1,  100.0,  9999.000,     0.000,   1,1.0000
    13,'1 ',  1690.000,   277.325,   700.000,  -280.000,1.00000,     0,  3400.000, 0.00000E+0, 2.50000E-1, 0.00000E+0, 0.00000E+0,1.00000,1,  100.0,  9999.000,     0.000,   1,1.0000
    15,'1 ',  2640.000,   296.211,  1300.000,  -900.000,0.96000,     0,  5300.000, 0.00000E+0, 2.50000E-1, 0.00000E+0, 0.00000E+0,1.00000,1,  100.0,  9999.000,     0.000,   1,1.0000
    18,'1 ',   962.000,   113.446,   300.000,  -300.000,1.00000,     0,  2000.000, 0.00000E+0, 2.50000E-1, 0.00000E+0, 0.00000E+0,1.00000,1,  100.0,  9999.000,     0.000,   1,1.0000
    30,'1 ',  4450.000,  1193.988,  4000.000, -4000.000,1.00000,     0,  8900.000, 0.00000E+0, 2.50000E-1, 0.00000E+0, 0.00000E+0,1.00000,1,  100.0,  9999.000,     0.000,   1,1.0000
    35,'1 ',  4480.000,  1171.725,  5320.000, -3500.000,1.02000,     0,  9000.000, 0.00000E+0, 2.50000E-1, 0.00000E+0, 0.00000E+0,1.00000,1,  100.0,  9999.000,     0.000,   1,1.0000
    36,'1 ',  1640.000,    25.071,   600.000,  -525.000,1.00900,     0,  3300.000, 0.00000E+0, 2.50000E-1, 0.00000E+0, 0.00000E+0,1.00000,1,  100.0,  9999.000,     0.000,   1,1.0000
    40,'1 ',  1240.000,   506.012,  1268.000,  -134.000,1.02000,     0,  4000.000, 0.00000E+0, 2.50000E-1, 0.00000E+0, 0.00000E+0,1.00000,1,  100.0,  9999.000,     0.000,   1,1.0000
    43,'1 ',   625.000,   298.149,  3000.000,  -220.000,1.00000,     0,  6500.000, 0.00000E+0, 2.50000E-1, 0.00000E+0, 0.00000E+0,1.00000,1,  100.0,  9999.000,     0.000,   1,1.0000
    45,'1 ',  1930.000,   221.383,   850.000,  -440.000,1.05000,     0,  3600.000, 0.00000E+0, 2.50000E-1, 0.00000E+0, 0.00000E+0,1.00000,1,  100.0,  9999.000,     0.000,   1,1.0000
    47,'1 ',   510.000,   203.812,  1000.000,  -100.000,1.02000,     0,  2200.000, 0.00000E+0, 2.50000E-1, 0.00000E+0, 0.00000E+0,1.00000,1,  100.0,  9999.000,     0.000,   1,1.0000
    65,'1 ',  2910.000,   804.338,  1500.000, -1000.000,1.00000,     0,  5800.000, 0.00000E+0, 2.50000E-1, 0.00000E+0, 0.00000E+0,1.00000,1,  100.0,  9999.000,     0.000,   1,1.0000
    70,'1 ',  1550.000,   306.896,   692.000,  -711.000,1.05500,     0,  2600.000, 0.00000E+0, 2.50000E-1, 0.00000E+0, 0.00000E+0,1.00000,1,  100.0,  9999.000,     0.000,   1,1.0000
    77,'1 ',  5864.702,   136.915,  2649.000, -1850.000,1.00000,     0, 10400.000, 0.00000E+0, 2.50000E-1, 0.00000E+0, 0.00000E+0,1.00000,1,  100.0,  9999.000,     0.000,   1,1.0000
    79,'1 ',  9950.000,  2162.815,  5780.000, -2000.000,1.02000,     0, 20000.000, 0.00000E+0, 2.50000E-1, 0.00000E+0, 0.00000E+0,1.00000,1,  100.0,  9999.000,     0.000,   1,1.0000
   103,'1 ',   765.000,   122.746,  3300.000,  -310.000,0.98000,     0,  1500.000, 0.00000E+0, 2.50000E-1, 0.00000E+0, 0.00000E+0,1.00000,1,  100.0,  9999.000,     0.000,   1,1.0000
   112,'1 ',   857.000,     5.333,   400.000,  -400.000,1.02000,     0,  2100.000, 0.00000E+0, 2.50000E-1, 0.00000E+0, 0.00000E+0,1.00000,1,  100.0,  9999.000,     0.000,   1,1.0000
   116,'1 ',   500.000,   379.596,  3000.000,  -300.000,1.05000,     0,  1200.000, 0.00000E+0, 2.50000E-1, 0.00000E+0, 0.00000E+0,1.00000,1,  100.0,  9999.000,     0.000,   1,1.0000
   118,'1 ',  4700.000,  1534.633,  2500.000, -1000.000,1.00000,     0,  6900.000, 0.00000E+0, 2.50000E-1, 0.00000E+0, 0.00000E+0,1.00000,1,  100.0,  9999.000,     0.000,   1,1.0000
   138,'1 ',  3282.700,  1430.677,  3000.000,  -300.000,1.02000,     0,  6000.000, 0.00000E+0, 2.50000E-1, 0.00000E+0, 0.00000E+0,1.00000,1,  100.0,  9999.000,     0.000,   1,1.0000
   140,'1 ',  3195.000,  1134.426,  2000.000,  -900.000,1.02000,     0,  6400.000, 0.00000E+0, 2.50000E-1, 0.00000E+0, 0.00000E+0,1.00000,1,  100.0,  9999.000,     0.000,   1,1.0000
   144,'1 ',  1690.000,  1565.218,  9000.000,  -400.000,1.05000,     0,  3400.000, 0.00000E+0, 2.50000E-1, 0.00000E+0, 0.00000E+0,1.00000,1,  100.0,  9999.000,     0.000,   1,1.0000
   148,'1 ',  1680.000,   576.276,  7000.000,  -300.000,1.05000,     0,  3400.000, 0.00000E+0, 2.50000E-1, 0.00000E+0, 0.00000E+0,1.00000,1,  100.0,  9999.000,     0.000,   1,1.0000
   149,'1 ',  3600.000,  1319.543,  6000.000,  -600.000,1.01000,     0,  4400.000, 0.00000E+0, 2.50000E-1, 0.00000E+0, 0.00000E+0,1.00000,1,  100.0,  9999.000,     0.000,   1,1.0000
   159,'1 ',  1665.000,   251.524,  9999.000, -9999.000,1.05000,     0,  3300.000, 0.00000E+0, 2.50000E-1, 0.00000E+0, 0.00000E+0,1.00000,1,  100.0,  9999.000,     0.000,   1,1.0000
   162,'1 ',   445.000,    76.579,  9999.000, -9999.000,1.00000,     0,   900.000, 0.00000E+0, 2.50000E-1, 0.00000E+0, 0.00000E+0,1.00000,1,  100.0,  9999.000,     0.000,   1,1.0000
 0 /End of Generator data, Begin Branch data
     1,     81,'1 ', 2.66700E-3, 2.66700E-2,   0.20000,    0.00,    0.00, 1732.00,  0.00000,  0.00000,  0.00000,  0.00000,1,2,   0.00,   1,1.0000
     1,     86,'1 ', 1.22000E-3, 2.37300E-2,   2.20710,    0.00,    0.00, 3600.00,  0.00000,  0.00000,  0.00000,  0.00000,1,1,   0.00,   1,1.0000
     3,      8,'1 ', 1.79000E-3, 1.98800E-2,   2.57600,    0.00,    0.00,    0.00,  0.00000,  0.00000,  0.00000,  0.00000,1,1,   0.00,   1,1.0000
     5,     17,'1 ', 9.77000E-3, 1.10000E-1,   2.00000,    0.00,    0.00,    0.00,  0.00000,  0.00000,  0.00000,  0.00000,1,2,   0.00,   1,1.0000
     5,    160,'1 ', 8.11000E-3, 1.36900E-1,   2.43480,    0.00,    0.00,    0.00,  0.00000,  0.00000,  0.00000,  0.00000,1,1,   0.00,   1,1.0000
     7,     28,'1 ', 4.08000E-4, 4.08000E-3,   0.20000,    0.00,    0.00,    0.00,  0.00000,  0.00000,  0.00000,  0.00000,1,1,   0.00,   1,1.0000
     8,     17,'1 ', 5.00000E-4, 5.30000E-3,   0.08820,    0.00,    0.00,    0.00,  0.00000,  0.00000,  0.00000,  0.00000,1,1,   0.00,   1,1.0000
     8,    163,'1 ', 4.80000E-3, 4.36000E-2,   0.70780,    0.00,    0.00,    0.00,  0.00000,  0.00000,  0.00000,  0.00000,1,2,   0.00,   1,1.0000
    12,     20,'1 ', 6.34000E-4, 6.34000E-3,   0.20000,    0.00,    0.00,    0.00,  0.00000,  0.00000,  0.00000,  0.00000,1,1,   0.00,   1,1.0000
    12,     22,'1 ', 1.18800E-3, 1.18800E-2,   0.20000,    0.00,    0.00,    0.00,  0.00000,  0.00000,  0.00000,  0.00000,1,1,   0.00,   1,1.0000
    12,    139,'1 ', 2.80000E-3, 2.11000E-2,   1.01940,    0.00,    0.00, 1630.00,  0.00000,  0.00000,  0.00000,  0.00000,1,1,   0.00,   1,1.0000
    14,     21,'1 ', 6.34000E-4, 6.34000E-3,   0.20000,    0.00,    0.00,    0.00,  0.00000,  0.00000,  0.00000,  0.00000,1,2,   0.00,   1,1.0000
    14,     24,'1 ', 8.26000E-4, 8.26000E-3,   0.20000,    0.00,    0.00,    0.00,  0.00000,  0.00000,  0.00000,  0.00000,1,1,   0.00,   1,1.0000
    14,     26,'1 ', 1.79500E-3, 1.79500E-2,   0.20000,    0.00,    0.00,    0.00,  0.00000,  0.00000,  0.00000,  0.00000,1,1,   0.00,   1,1.0000
    14,     29,'1 ', 6.12000E-4, 6.12000E-3,   0.20000,    0.00,    0.00,    0.00,  0.00000,  0.00000,  0.00000,  0.00000,1,2,   0.00,   1,1.0000
    16,     19,'1 ', 4.00000E-4, 9.60000E-3,   0.90380,    0.00,    0.00,    0.00,  0.00000,  0.00000,  0.00000,  0.00000,1,1,   0.00,   1,1.0000
    16,     19,'2 ', 4.00000E-4, 9.60000E-3,   0.90380,    0.00,    0.00,    0.00,  0.00000,  0.00000,  0.00000,  0.00000,1,1,   0.00,   1,1.0000
    16,    136,'1 ', 2.59000E-3, 2.96700E-2,   2.15300,    0.00,    0.00, 1800.00,  0.00000,  0.00000,  0.00000,  0.00000,1,1,   0.00,   1,1.0000
    16,    136,'2 ', 2.59000E-3, 2.96700E-2,   2.15300,    0.00,    0.00, 1800.00,  0.00000,  0.00000,  0.00000,  0.00000,1,1,   0.00,   1,1.0000
    19,     23,'1 ', 1.18800E-3, 1.18800E-2,   0.20000,    0.00,    0.00,    0.00,  0.00000,  0.00000,  0.00000,  0.00000,1,2,   0.00,   1,1.0000
    19,     25,'1 ', 8.26000E-4, 8.26000E-3,   0.20000,    0.00,    0.00,    0.00,  0.00000,  0.00000,  0.00000,  0.00000,1,2,   0.00,   1,1.0000
    20,     21,'1 ', 7.70000E-4, 1.80400E-2,   1.39842,    0.00,    0.00,    0.00,  0.00000,  0.00000,  0.00000,  0.00000,1,1,   0.00,   1,1.0000
    22,     23,'1 ', 2.41000E-3, 5.86500E-2,   4.86560,    0.00,    0.00,    0.00,  0.00000,  0.00000,  0.00000,  0.00000,1,1,   0.00,   1,1.0000
    24,     25,'1 ', 1.79000E-3, 4.24400E-2,   3.39220,    0.00,    0.00,    0.00,  0.00000,  0.00000,  0.00000,  0.00000,1,1,   0.00,   1,1.0000
    26,     27,'1 ', 2.07000E-3, 4.95900E-2,   3.95160,    0.00,    0.00,    0.00,  0.00000,  0.00000,  0.00000,  0.00000,1,1,   0.00,   1,1.0000
    27,    139,'1 ', 1.79500E-3, 1.79500E-2,   0.20000,    0.00,    0.00,    0.00,  0.00000,  0.00000,  0.00000,  0.00000,1,1,   0.00,   1,1.0000
    28,     29,'1 ', 1.77000E-3, 4.18900E-2,   3.34460,    0.00,    0.00,    0.00,  0.00000,  0.00000,  0.00000,  0.00000,1,1,   0.00,   1,1.0000
    31,     32,'1 ', 3.50000E-3, 7.00000E-2,   4.60600,    0.00,    0.00,    0.00,  0.00000,  0.00000,  0.00000,  0.00000,1,1,   0.00,   1,1.0000
    31,     80,'1 ', 8.30000E-4, 2.39000E-2,   3.30000,    0.00,    0.00,    0.00,  0.00000,  0.00000,  0.00000,  0.00000,1,1,   0.00,   1,1.0000
    33,     34,'1 ', 2.00000E-3, 2.00000E-2,   0.80000,    0.00,    0.00,    0.00,  0.00000,  0.00000,  0.00000,  0.00000,1,1,   0.00,   1,1.0000
    37,     38,'1 ', 7.40000E-4, 1.86100E-2,   1.40264,    0.00,    0.00,    0.00,  0.00000,  0.00000,  0.00000,  0.00000,1,1,   0.00,   1,1.0000
    37,     56,'1 ', 8.20000E-4, 1.66800E-2,   1.18802,    0.00,    0.00,    0.00,  0.00000,  0.00000,  0.00000,  0.00000,1,1,   0.00,   1,1.0000
    37,     64,'1 ', 1.59000E-4, 1.59000E-3,   0.12002,    0.00,    0.00,    0.00,  0.00000,  0.00000,  0.00000,  0.00000,1,1,   0.00,   1,1.0000
    37,     64,'2 ', 1.59000E-4, 1.59000E-3,   0.12002,    0.00,    0.00,    0.00,  0.00000,  0.00000,  0.00000,  0.00000,1,1,   0.00,   1,1.0000
    39,     46,'1 ', 2.21000E-3, 3.34600E-2,   0.07338,    0.00,    0.00,    0.00,  0.00000,  0.00000,  0.00000,  0.00000,1,1,   0.00,   1,1.0000
    39,     48,'1 ', 2.90000E-3, 3.80000E-2,   0.08240,    0.00,    0.00,    0.00,  0.00000,  0.00000,  0.00000,  0.00000,1,1,   0.00,   1,1.0000
    39,     59,'1 ', 3.09000E-3, 4.67700E-2,   0.10080,    0.00,    0.00,    0.00,  0.00000,  0.00000,  0.00000,  0.00000,1,1,   0.00,   1,1.0000
    39,     60,'1 ', 2.26000E-3, 3.42200E-2,   0.07506,    0.00,    0.00,    0.00,  0.00000,  0.00000,  0.00000,  0.00000,1,1,   0.00,   1,1.0000
    41,     55,'1 ', 4.70000E-4, 7.23000E-3,   0.01624,    0.00,    0.00,    0.00,  0.00000,  0.00000,  0.00000,  0.00000,1,2,   0.00,   1,1.0000
    41,     58,'1 ', 3.50000E-4, 5.36000E-3,   0.01204,    0.00,    0.00,    0.00,  0.00000,  0.00000,  0.00000,  0.00000,1,1,   0.00,   1,1.0000
    42,     50,'1 ', 2.20000E-3, 3.42200E-2,   0.07716,    0.00,    0.00,    0.00,  0.00000,  0.00000,  0.00000,  0.00000,1,2,   0.00,   1,1.0000
    42,     50,'2 ', 2.38000E-3, 3.66900E-2,   0.08284,    0.00,    0.00,    0.00,  0.00000,  0.00000,  0.00000,  0.00000,1,2,   0.00,   1,1.0000
    42,     57,'1 ', 2.01000E-3, 3.07400E-2,   0.06886,    0.00,    0.00,    0.00,  0.00000,  0.00000,  0.00000,  0.00000,1,2,   0.00,   1,1.0000
    42,     58,'1 ', 2.81000E-3, 4.29600E-2,   0.09648,    0.00,    0.00,    0.00,  0.00000,  0.00000,  0.00000,  0.00000,1,1,   0.00,   1,1.0000
    44,    160,'1 ', 1.80000E-3, 2.45000E-2,   0.43920,    0.00,    0.00,    0.00,  0.00000,  0.00000,  0.00000,  0.00000,1,1,   0.00,   1,1.0000
    44,    160,'2 ', 1.80000E-3, 2.45000E-2,   0.43920,    0.00,    0.00,    0.00,  0.00000,  0.00000,  0.00000,  0.00000,1,1,   0.00,   1,1.0000
    46,     48,'1 ', 2.90000E-4, 4.34000E-3,   0.00950,    0.00,    0.00,    0.00,  0.00000,  0.00000,  0.00000,  0.00000,1,2,   0.00,   1,1.0000
    48,     55,'1 ', 2.29000E-3, 1.58300E-2,   0.03060,    0.00,    0.00,    0.00,  0.00000,  0.00000,  0.00000,  0.00000,1,1,   0.00,   1,1.0000
    48,     55,'2 ', 2.29000E-3, 1.58300E-2,   0.03060,    0.00,    0.00,    0.00,  0.00000,  0.00000,  0.00000,  0.00000,1,1,   0.00,   1,1.0000
    48,     59,'1 ', 1.41000E-3, 9.67000E-3,   0.01940,    0.00,    0.00,    0.00,  0.00000,  0.00000,  0.00000,  0.00000,1,1,   0.00,   1,1.0000
    48,     59,'2 ', 1.41000E-3, 9.67000E-3,   0.01940,    0.00,    0.00,    0.00,  0.00000,  0.00000,  0.00000,  0.00000,1,1,   0.00,   1,1.0000
    48,     59,'3 ', 1.61000E-3, 9.71000E-3,   0.01928,    0.00,    0.00,    0.00,  0.00000,  0.00000,  0.00000,  0.00000,1,1,   0.00,   1,1.0000
    48,     59,'4 ', 1.61000E-3, 9.71000E-3,   0.01928,    0.00,    0.00,    0.00,  0.00000,  0.00000,  0.00000,  0.00000,1,1,   0.00,   1,1.0000
    48,     60,'1 ', 2.70000E-4, 3.93000E-3,   0.00918,    0.00,    0.00,    0.00,  0.00000,  0.00000,  0.00000,  0.00000,1,1,   0.00,   1,1.0000
    48,     60,'2 ', 2.70000E-4, 3.93000E-3,   0.00918,    0.00,    0.00,    0.00,  0.00000,  0.00000,  0.00000,  0.00000,1,1,   0.00,   1,1.0000
    48,     60,'3 ', 2.70000E-4, 3.93000E-3,   0.00918,    0.00,    0.00,    0.00,  0.00000,  0.00000,  0.00000,  0.00000,1,1,   0.00,   1,1.0000
    48,     62,'1 ', 1.38000E-3, 1.11600E-2,   0.02470,    0.00,    0.00,    0.00,  0.00000,  0.00000,  0.00000,  0.00000,1,1,   0.00,   1,1.0000
    48,     62,'2 ', 1.38000E-3, 1.11600E-2,   0.02470,    0.00,    0.00,    0.00,  0.00000,  0.00000,  0.00000,  0.00000,1,1,   0.00,   1,1.0000
    49,     64,'1 ', 8.30000E-4, 1.88400E-2,   1.66668,    0.00,    0.00,    0.00,  0.00000,  0.00000,  0.00000,  0.00000,1,2,   0.00,   1,1.0000
    50,     57,'1 ', 3.70000E-4, 3.66000E-3,   0.00830,    0.00,    0.00,    0.00,  0.00000,  0.00000,  0.00000,  0.00000,1,1,   0.00,   1,1.0000
    50,     58,'1 ', 5.50000E-4, 5.86000E-3,   0.01246,    0.00,    0.00,    0.00,  0.00000,  0.00000,  0.00000,  0.00000,1,1,   0.00,   1,1.0000
    52,     63,'1 ', 1.07000E-2, 7.90500E-2,   0.36670,    0.00,    0.00,    0.00,  0.00000,  0.00000,  0.00000,  0.00000,1,1,   0.00,   1,1.0000
    53,     63,'1 ', 1.07000E-2, 7.90500E-2,   0.36670,    0.00,    0.00,    0.00,  0.00000,  0.00000,  0.00000,  0.00000,1,1,   0.00,   1,1.0000
    54,     57,'1 ', 7.30000E-4, 1.02500E-2,   0.02558,    0.00,    0.00,    0.00,  0.00000,  0.00000,  0.00000,  0.00000,1,2,   0.00,   1,1.0000
    54,     57,'2 ', 7.30000E-4, 1.02500E-2,   0.02558,    0.00,    0.00,    0.00,  0.00000,  0.00000,  0.00000,  0.00000,1,2,   0.00,   1,1.0000
    55,     58,'1 ', 1.19000E-3, 1.24400E-2,   0.02798,    0.00,    0.00,    0.00,  0.00000,  0.00000,  0.00000,  0.00000,1,1,   0.00,   1,1.0000
    55,     58,'2 ', 1.19000E-3, 1.24400E-2,   0.02798,    0.00,    0.00,    0.00,  0.00000,  0.00000,  0.00000,  0.00000,1,1,   0.00,   1,1.0000
    55,     62,'1 ', 1.28000E-3, 9.79000E-3,   0.02120,    0.00,    0.00,    0.00,  0.00000,  0.00000,  0.00000,  0.00000,1,2,   0.00,   1,1.0000
    57,     58,'1 ', 1.10000E-3, 1.18900E-2,   0.02514,    0.00,    0.00,    0.00,  0.00000,  0.00000,  0.00000,  0.00000,1,1,   0.00,   1,1.0000
    61,    137,'1 ', 1.40000E-3, 2.64000E-2,   0.10200,    0.00,    0.00, 3070.00,  0.00000,  0.00000,  0.00000,  0.00000,1,2,   0.00,   1,1.0000
    61,    150,'1 ', 6.50000E-4, 1.18700E-2,   0.04672,    0.00,    0.00, 3070.00,  0.00000,  0.00000,  0.00000,  0.00000,1,2,   0.00,   1,1.0000
    61,    150,'2 ', 6.50000E-4, 1.18700E-2,   0.04672,    0.00,    0.00, 3070.00,  0.00000,  0.00000,  0.00000,  0.00000,1,2,   0.00,   1,1.0000
    64,    139,'1 ', 1.79000E-3, 2.52400E-2,   0.53546,    0.00,    0.00,    0.00,  0.00000,  0.00000,  0.00000,  0.00000,1,2,   0.00,   1,1.0000
    64,    139,'2 ', 1.79000E-3, 2.52400E-2,   0.53546,    0.00,    0.00,    0.00,  0.00000,  0.00000,  0.00000,  0.00000,1,2,   0.00,   1,1.0000
    64,    142,'1 ', 2.00000E-4, 4.10000E-3,   0.29620,    0.00,    0.00,    0.00,  0.00000,  0.00000,  0.00000,  0.00000,1,2,   0.00,   1,1.0000
    66,     78,'1 ', 7.00000E-4, 7.40000E-2,   4.87000,    0.00,    0.00,    0.00,  0.00000,  0.00000,  0.00000,  0.00000,1,2,   0.00,   1,1.0000
    68,     71,'1 ', 6.00000E-5, 1.31000E-3,   0.00378,    0.00,    0.00, 3020.00,  0.00000,  0.00000,  0.00000,  0.00000,1,1,   0.00,   1,1.0000
    68,     71,'2 ', 6.00000E-5, 1.16000E-3,   0.00332,    0.00,    0.00, 3020.00,  0.00000,  0.00000,  0.00000,  0.00000,1,1,   0.00,   1,1.0000
    69,     72,'1 ', 1.00000E-5, 3.00000E-4,   0.01434,    0.00,    0.00, 3450.00,  0.00000,  0.00000,  0.00000,  0.00000,1,1,   0.00,   1,1.0000
    69,     72,'2 ', 1.00000E-5, 3.00000E-4,   0.01844,    0.00,    0.00, 3450.00,  0.00000,  0.00000,  0.00000,  0.00000,1,1,   0.00,   1,1.0000
    69,     76,'1 ', 2.30000E-4, 4.51000E-3,   0.33320,    0.00,    0.00, 2175.00,  0.00000,  0.00000,  0.00000,  0.00000,1,1,   0.00,   1,1.0000
    69,     76,'2 ', 2.00000E-4, 4.46000E-3,   0.30500,    0.00,    0.00, 2175.00,  0.00000,  0.00000,  0.00000,  0.00000,1,1,   0.00,   1,1.0000
    73,     75,'1 ', 1.79000E-3, 1.40500E-2,   3.68000,    0.00,    0.00,    0.00,  0.00000,  0.00000,  0.00000,  0.00000,1,2,   0.00,   1,1.0000
    74,     78,'1 ', 1.13000E-3, 2.06900E-2,   1.85526,    0.00,    0.00,    0.00,  0.00000,  0.00000,  0.00000,  0.00000,1,2,   0.00,   1,1.0000
    75,     76,'1 ', 1.96000E-3, 3.30400E-2,   1.88000,    0.00,    0.00,    0.00,  0.00000,  0.00000,  0.00000,  0.00000,1,1,   0.00,   1,1.0000
    75,     78,'1 ', 1.42000E-3, 2.25800E-2,   1.88000,    0.00,    0.00,    0.00,  0.00000,  0.00000,  0.00000,  0.00000,1,1,   0.00,   1,1.0000
    76,     78,'1 ', 1.20000E-3, 2.31600E-2,   1.71520,    0.00,    0.00,    0.00,  0.00000,  0.00000,  0.00000,  0.00000,1,2,   0.00,   1,1.0000
    76,     78,'2 ', 3.00000E-4, 2.00000E-2,   3.60000,    0.00,    0.00,    0.00,  0.00000,  0.00000,  0.00000,  0.00000,1,2,   0.00,   1,1.0000
    76,     82,'1 ', 6.30000E-4, 1.41200E-2,   1.09756,    0.00,    0.00, 3450.00,  0.00000,  0.00000,  0.00000,  0.00000,1,2,   0.00,   1,1.0000
    76,     82,'2 ', 1.09000E-3, 2.40800E-2,   1.55542,    0.00,    0.00, 3020.00,  0.00000,  0.00000,  0.00000,  0.00000,1,2,   0.00,   1,1.0000
    76,     82,'3 ', 1.08000E-3, 2.40900E-2,   1.55348,    0.00,    0.00, 3020.00,  0.00000,  0.00000,  0.00000,  0.00000,1,2,   0.00,   1,1.0000
    78,     80,'1 ', 2.00000E-4, 8.20000E-3,   1.30000,    0.00,    0.00,    0.00,  0.00000,  0.00000,  0.00000,  0.00000,1,2,   0.00,   1,1.0000
    78,     80,'2 ', 2.00000E-4, 8.20000E-3,   1.30000,    0.00,    0.00,    0.00,  0.00000,  0.00000,  0.00000,  0.00000,1,2,   0.00,   1,1.0000
    81,     99,'1 ', 2.64000E-3, 5.35600E-2,   5.29066,    0.00,    0.00, 3600.00,  0.00000,  0.00000,  0.00000,  0.00000,1,1,   0.00,   1,1.0000
    82,     87,'1 ', 4.10000E-4, 7.37000E-3,   0.72694,    0.00,    0.00, 3450.00,  0.00000,  0.00000,  0.00000,  0.00000,1,1,   0.00,   1,1.0000
    82,     91,'1 ', 6.60000E-4, 1.26600E-2,   0.95976,    0.00,    0.00, 3020.00,  0.00000,  0.00000,  0.00000,  0.00000,1,1,   0.00,   1,1.0000
    82,     95,'1 ', 6.60000E-4, 3.16000E-3,   0.95976,    0.00,    0.00, 3020.00,  0.00000,  0.00000,  0.00000,  0.00000,1,1,   0.00,   1,1.0000
    83,     89,'1 ', 7.20000E-4, 1.38200E-2,   1.27572,    0.00,    0.00, 3600.00,  0.00000,  0.00000,  0.00000,  0.00000,1,1,   0.00,   1,1.0000
    83,     94,'1 ', 7.80000E-4, 1.50200E-2,   1.13810,    0.00,    0.00, 3020.00,  0.00000,  0.00000,  0.00000,  0.00000,1,2,   0.00,   1,1.0000
    83,     98,'1 ', 7.40000E-4, 3.16000E-3,   1.06634,    0.00,    0.00, 3020.00,  0.00000,  0.00000,  0.00000,  0.00000,1,2,   0.00,   1,1.0000
    83,    168,'1 ', 7.20000E-4, 7.20000E-3,   0.20000,    0.00,    0.00, 1800.00,  0.00000,  0.00000,  0.00000,  0.00000,1,1,   0.00,   1,1.0000
    83,    170,'1 ', 8.64000E-4, 8.64000E-3,   0.20000,    0.00,    0.00, 1800.00,  0.00000,  0.00000,  0.00000,  0.00000,1,1,   0.00,   1,1.0000
    83,    172,'1 ', 1.00000E-3, 1.00000E-2,   0.20000,    0.00,    0.00,    0.00,  0.00000,  0.00000,  0.00000,  0.00000,1,1,   0.00,   1,1.0000
    84,     99,'1 ', 2.66700E-3, 2.66700E-2,   0.20000,    0.00,    0.00, 1732.00,  0.00000,  0.00000,  0.00000,  0.00000,1,2,   0.00,   1,1.0000
    85,    156,'1 ', 6.20000E-3, 6.73000E-2,   1.11560,    0.00,    0.00,    0.00,  0.00000,  0.00000,  0.00000,  0.00000,1,2,   0.00,   1,1.0000
    86,     88,'1 ', 6.00000E-4, 1.03600E-2,   1.01456,    0.00,    0.00, 3450.00,  0.00000,  0.00000,  0.00000,  0.00000,1,2,   0.00,   1,1.0000
    86,     90,'1 ', 1.20000E-4, 2.38000E-3,   0.21926,    0.00,    0.00, 3600.00,  0.00000,  0.00000,  0.00000,  0.00000,1,2,   0.00,   1,1.0000
    87,     88,'1 ', 1.26300E-3, 1.26300E-2,   0.20000,    0.00,    0.00, 2000.00,  0.00000,  0.00000,  0.00000,  0.00000,1,1,   0.00,   1,1.0000
    89,     90,'1 ', 8.58000E-4, 8.58000E-3,   0.20000,    0.00,    0.00, 2000.00,  0.00000,  0.00000,  0.00000,  0.00000,1,1,   0.00,   1,1.0000
    91,     92,'1 ', 1.26300E-3, 1.26300E-2,   0.20000,    0.00,    0.00, 2400.00,  0.00000,  0.00000,  0.00000,  0.00000,1,1,   0.00,   1,1.0000
    92,     93,'1 ', 7.40000E-4, 1.42800E-2,   1.08220,    0.00,    0.00, 3020.00,  0.00000,  0.00000,  0.00000,  0.00000,1,1,   0.00,   1,1.0000
    93,     94,'1 ', 1.26300E-3, 1.26300E-2,   0.20000,    0.00,    0.00, 2400.00,  0.00000,  0.00000,  0.00000,  0.00000,1,1,   0.00,   1,1.0000
    95,     96,'1 ', 3.16000E-4, 3.16000E-3,   0.36000,    0.00,    0.00, 2000.00,  0.00000,  0.00000,  0.00000,  0.00000,1,1,   0.00,   1,1.0000
    96,     97,'1 ', 7.40000E-4, 3.16000E-3,   0.36000,    0.00,    0.00, 3020.00,  0.00000,  0.00000,  0.00000,  0.00000,1,1,   0.00,   1,1.0000
    97,     98,'1 ', 3.16000E-4, 3.16000E-3,   0.36000,    0.00,    0.00, 2000.00,  0.00000,  0.00000,  0.00000,  0.00000,1,1,   0.00,   1,1.0000
   100,    101,'1 ', 2.48200E-2, 1.69380E-1,   0.20232,    0.00,    0.00,  838.00,  0.00000,  0.00000,  0.00000,  0.00000,1,2,   0.00,   1,1.0000
   100,    117,'1 ', 1.48000E-2, 1.01010E-1,   0.12066,    0.00,    0.00,  838.00,  0.00000,  0.00000,  0.00000,  0.00000,1,1,   0.00,   1,1.0000
   101,    105,'1 ', 1.38200E-2, 9.26800E-2,   0.11060,    0.00,    0.00,  747.00,  0.00000,  0.00000,  0.00000,  0.00000,1,1,   0.00,   1,1.0000
   101,    106,'1 ', 1.66800E-2, 1.13810E-1,   0.13608,    0.00,    0.00,  838.00,  0.00000,  0.00000,  0.00000,  0.00000,1,1,   0.00,   1,1.0000
   101,    113,'1 ', 1.11300E-2, 6.67800E-2,   0.07286,    0.00,    0.00,  752.00,  0.00000,  0.00000,  0.00000,  0.00000,1,1,   0.00,   1,1.0000
   101,    113,'2 ', 1.05000E-2, 6.54000E-2,   0.06860,    0.00,    0.00,  602.00,  0.00000,  0.00000,  0.00000,  0.00000,1,1,   0.00,   1,1.0000
   101,    113,'3 ', 1.10500E-2, 6.64200E-2,   0.07160,    0.00,    0.00,  752.00,  0.00000,  0.00000,  0.00000,  0.00000,1,1,   0.00,   1,1.0000
   101,    117,'1 ', 3.90300E-2, 2.74030E-1,   0.31072,    0.00,    0.00,  747.00,  0.00000,  0.00000,  0.00000,  0.00000,1,1,   0.00,   1,1.0000
   102,    104,'1 ', 7.90000E-4, 1.93700E-2,   1.32850,    0.00,    0.00,    0.00,  0.00000,  0.00000,  0.00000,  0.00000,1,2,   0.00,   1,1.0000
   102,    108,'1 ', 8.70000E-4, 2.08700E-2,   1.45710,    0.00,    0.00,    0.00,  0.00000,  0.00000,  0.00000,  0.00000,1,1,   0.00,   1,1.0000
   102,    108,'2 ', 8.70000E-4, 2.08700E-2,   1.45710,    0.00,    0.00,    0.00,  0.00000,  0.00000,  0.00000,  0.00000,1,1,   0.00,   1,1.0000
   104,    107,'1 ', 8.30000E-4, 1.98500E-2,   0.20000,    0.00,    0.00, 2450.00,  0.00000,  0.00000,  0.00000,  0.00000,1,2,   0.00,   1,1.0000
   104,    134,'1 ', 9.30000E-4, 3.64400E-2,   1.38950,    0.00,    0.00, 2450.00,  0.00000,  0.00000,  0.00000,  0.00000,1,2,   0.00,   1,1.0000
   104,    135,'1 ', 7.20000E-4, 1.60000E-2,   1.08790,    0.00,    0.00, 2450.00,  0.00000,  0.00000,  0.00000,  0.00000,1,1,   0.00,   1,1.0000
   105,    117,'1 ', 3.05800E-2, 2.04600E-1,   0.24472,    0.00,    0.00,  747.00,  0.00000,  0.00000,  0.00000,  0.00000,1,1,   0.00,   1,1.0000
   106,    117,'1 ', 2.23500E-2, 1.61060E-1,   0.18342,    0.00,    0.00,  838.00,  0.00000,  0.00000,  0.00000,  0.00000,1,1,   0.00,   1,1.0000
   107,    108,'1 ', 1.53000E-3, 1.47000E-2,   0.20000,    0.00,    0.00, 1560.00,  0.00000,  0.00000,  0.00000,  0.00000,1,1,   0.00,   1,1.0000
   107,    110,'1 ', 5.30000E-4, 1.29700E-2,   0.20000,    0.00,    0.00, 2450.00,  0.00000,  0.00000,  0.00000,  0.00000,1,2,   0.00,   1,1.0000
   108,    133,'1 ', 2.00000E-5, 1.33100E-3,   0.20000,    0.00,    0.00, 1800.00,  0.00000,  0.00000,  0.00000,  0.00000,1,2,   0.00,   1,1.0000
   108,    135,'1 ', 2.00000E-5, 9.98000E-3,   0.20000,    0.00,    0.00, 2450.00,  0.00000,  0.00000,  0.00000,  0.00000,1,2,   0.00,   1,1.0000
   108,    174,'1 ', 9.35000E-4, 9.35000E-3,   0.20000,    0.00,    0.00, 2134.00,  0.00000,  0.00000,  0.00000,  0.00000,1,1,   0.00,   1,1.0000
   108,    176,'1 ', 9.44000E-4, 9.44000E-3,   0.20000,    0.00,    0.00, 2134.00,  0.00000,  0.00000,  0.00000,  0.00000,1,1,   0.00,   1,1.0000
   108,    178,'1 ', 9.35000E-4, 9.35000E-3,   0.20000,    0.00,    0.00, 2134.00,  0.00000,  0.00000,  0.00000,  0.00000,1,1,   0.00,   1,1.0000
   111,    120,'1 ', 1.00000E-4, 1.00000E-3,   0.20000,    0.00,    0.00, 2667.00,  0.00000,  0.00000,  0.00000,  0.00000,1,1,   0.00,   1,1.0000
   111,    173,'1 ', 1.00000E-3, 1.00000E-2,   0.20000,    0.00,    0.00,    0.00,  0.00000,  0.00000,  0.00000,  0.00000,1,2,   0.00,   1,1.0000
   114,    124,'1 ', 2.00000E-5, 9.98000E-4,   0.20000,    0.00,    0.00, 1800.00,  0.00000,  0.00000,  0.00000,  0.00000,1,1,   0.00,   1,1.0000
   114,    126,'1 ', 2.00000E-5, 9.98000E-4,   0.20000,    0.00,    0.00, 1800.00,  0.00000,  0.00000,  0.00000,  0.00000,1,1,   0.00,   1,1.0000
   114,    169,'1 ', 7.20000E-5, 7.20000E-4,   0.20000,    0.00,    0.00, 1800.00,  0.00000,  0.00000,  0.00000,  0.00000,1,2,   0.00,   1,1.0000
   114,    171,'1 ', 7.20000E-5, 7.20000E-4,   0.20000,    0.00,    0.00, 1800.00,  0.00000,  0.00000,  0.00000,  0.00000,1,2,   0.00,   1,1.0000
   115,    125,'1 ', 1.00000E-5, 6.66000E-4,   0.20000,    0.00,    0.00, 1800.00,  0.00000,  0.00000,  0.00000,  0.00000,1,2,   0.00,   1,1.0000
   115,    127,'1 ', 1.00000E-5, 6.66000E-4,   0.20000,    0.00,    0.00, 1800.00,  0.00000,  0.00000,  0.00000,  0.00000,1,2,   0.00,   1,1.0000
   115,    128,'1 ', 1.00000E-5, 1.12000E-4,   0.20000,    0.00,    0.00, 2667.00,  0.00000,  0.00000,  0.00000,  0.00000,1,1,   0.00,   1,1.0000
   115,    130,'1 ', 1.00000E-5, 7.20000E-4,   0.20000,    0.00,    0.00, 2667.00,  0.00000,  0.00000,  0.00000,  0.00000,1,1,   0.00,   1,1.0000
   119,    123,'1 ', 1.00000E-5, 1.00000E-4,   0.20000,    0.00,    0.00, 2667.00,  0.00000,  0.00000,  0.00000,  0.00000,1,2,   0.00,   1,1.0000
   119,    129,'1 ', 1.00000E-5, 1.12000E-4,   0.20000,    0.00,    0.00, 2667.00,  0.00000,  0.00000,  0.00000,  0.00000,1,2,   0.00,   1,1.0000
   119,    131,'1 ', 1.00000E-5, 3.00000E-4,   0.20000,    0.00,    0.00, 2667.00,  0.00000,  0.00000,  0.00000,  0.00000,1,2,   0.00,   1,1.0000
   119,    132,'1 ', 1.00000E-5, 7.55000E-3,   0.20000,    0.00,    0.00,    0.00,  0.00000,  0.00000,  0.00000,  0.00000,1,1,   0.00,   1,1.0000
   119,    134,'1 ', 1.00000E-5, 1.09800E-2,   0.20000,    0.00,    0.00, 2450.00,  0.00000,  0.00000,  0.00000,  0.00000,1,1,   0.00,   1,1.0000
   120,    121,'1 ', 7.60000E-4, 1.95200E-2,   1.82450,    0.00,    0.00, 2894.00,  0.00000,  0.00000,  0.00000,  0.00000,1,1,   0.00,   1,1.0000
   121,    122,'1 ', 1.00000E-3, 1.00000E-2,   0.20000,    0.00,    0.00, 2667.00,  0.00000,  0.00000,  0.00000,  0.00000,1,1,   0.00,   1,1.0000
   122,    123,'1 ', 8.20000E-4, 2.11900E-2,   1.98420,    0.00,    0.00, 2894.00,  0.00000,  0.00000,  0.00000,  0.00000,1,1,   0.00,   1,1.0000
   124,    125,'1 ', 1.40000E-3, 2.33800E-2,   1.47500,    0.00,    0.00, 2396.00,  0.00000,  0.00000,  0.00000,  0.00000,1,1,   0.00,   1,1.0000
   126,    127,'1 ', 1.40000E-3, 2.33800E-2,   1.47500,    0.00,    0.00, 2396.00,  0.00000,  0.00000,  0.00000,  0.00000,1,1,   0.00,   1,1.0000
   128,    129,'1 ', 1.54000E-3, 3.40900E-2,   2.31140,    0.00,    0.00, 2450.00,  0.00000,  0.00000,  0.00000,  0.00000,1,1,   0.00,   1,1.0000
   130,    131,'1 ', 9.50000E-4, 2.10200E-2,   1.42520,    0.00,    0.00, 2450.00,  0.00000,  0.00000,  0.00000,  0.00000,1,1,   0.00,   1,1.0000
   132,    133,'1 ', 1.65000E-3, 5.71900E-2,   2.47740,    0.00,    0.00, 2450.00,  0.00000,  0.00000,  0.00000,  0.00000,1,1,   0.00,   1,1.0000
   136,    152,'1 ', 4.20000E-4, 9.05000E-3,   0.66794,    0.00,    0.00, 3600.00,  0.00000,  0.00000,  0.00000,  0.00000,1,1,   0.00,   1,1.0000
   137,    143,'1 ', 1.90000E-3, 2.58000E-2,   0.09840,    0.00,    0.00, 2320.00,  0.00000,  0.00000,  0.00000,  0.00000,1,1,   0.00,   1,1.0000
   137,    150,'1 ', 8.45000E-3, 7.03400E-2,   0.15954,    0.00,    0.00, 1160.00,  0.00000,  0.00000,  0.00000,  0.00000,1,1,   0.00,   1,1.0000
   139,    142,'1 ', 1.93000E-3, 2.77900E-2,   4.67120,    0.00,    0.00, 3600.00,  0.00000,  0.00000,  0.00000,  0.00000,1,1,   0.00,   1,1.0000
   139,    147,'1 ', 5.60000E-4, 1.41500E-2,   1.04290,    0.00,    0.00, 3600.00,  0.00000,  0.00000,  0.00000,  0.00000,1,2,   0.00,   1,1.0000
   141,    143,'1 ', 1.10000E-3, 1.27000E-2,   0.04800,    0.00,    0.00, 2320.00,  0.00000,  0.00000,  0.00000,  0.00000,1,1,   0.00,   1,1.0000
   142,    145,'1 ', 2.80000E-4, 7.53000E-3,   0.51736,    0.00,    0.00, 3600.00,  0.00000,  0.00000,  0.00000,  0.00000,1,1,   0.00,   1,1.0000
   142,    145,'2 ', 3.50000E-4, 7.50000E-3,   0.55360,    0.00,    0.00, 3600.00,  0.00000,  0.00000,  0.00000,  0.00000,1,1,   0.00,   1,1.0000
   142,    147,'1 ', 1.90000E-3, 3.10000E-2,   4.14020,    0.00,    0.00, 3600.00,  0.00000,  0.00000,  0.00000,  0.00000,1,1,   0.00,   1,1.0000
   142,    151,'1 ', 6.00000E-4, 1.28000E-2,   0.94620,    0.00,    0.00, 3600.00,  0.00000,  0.00000,  0.00000,  0.00000,1,1,   0.00,   1,1.0000
   142,    153,'1 ', 4.40000E-4, 1.12500E-2,   0.82920,    0.00,    0.00, 3600.00,  0.00000,  0.00000,  0.00000,  0.00000,1,1,   0.00,   1,1.0000
   142,    153,'2 ', 4.40000E-4, 1.12500E-2,   0.82920,    0.00,    0.00, 3600.00,  0.00000,  0.00000,  0.00000,  0.00000,1,1,   0.00,   1,1.0000
   143,    146,'1 ', 1.38000E-3, 5.39900E-2,   0.15252,    0.00,    0.00, 2320.00,  0.00000,  0.00000,  0.00000,  0.00000,1,2,   0.00,   1,1.0000
   143,    154,'1 ', 3.20000E-3, 3.95000E-2,   0.14400,    0.00,    0.00, 2320.00,  0.00000,  0.00000,  0.00000,  0.00000,1,2,   0.00,   1,1.0000
   145,    151,'1 ', 2.10000E-4, 4.57000E-3,   0.32336,    0.00,    0.00, 3600.00,  0.00000,  0.00000,  0.00000,  0.00000,1,1,   0.00,   1,1.0000
   150,    154,'1 ', 2.85000E-3, 3.64900E-2,   0.12656,    0.00,    0.00, 2320.00,  0.00000,  0.00000,  0.00000,  0.00000,1,1,   0.00,   1,1.0000
   150,    154,'2 ', 1.38000E-3, 3.39900E-2,   0.11252,    0.00,    0.00, 2320.00,  0.00000,  0.00000,  0.00000,  0.00000,1,1,   0.00,   1,1.0000
   151,    152,'1 ', 4.00000E-4, 9.30000E-3,   0.68560,    0.00,    0.00, 3600.00,  0.00000,  0.00000,  0.00000,  0.00000,1,1,   0.00,   1,1.0000
   153,    175,'1 ', 9.35000E-4, 9.35000E-3,   0.20000,    0.00,    0.00, 2134.00,  0.00000,  0.00000,  0.00000,  0.00000,1,2,   0.00,   1,1.0000
   153,    177,'1 ', 9.35000E-4, 9.35000E-3,   0.20000,    0.00,    0.00, 2134.00,  0.00000,  0.00000,  0.00000,  0.00000,1,2,   0.00,   1,1.0000
   153,    179,'1 ', 8.40000E-4, 8.40000E-3,   0.20000,    0.00,    0.00, 2100.00,  0.00000,  0.00000,  0.00000,  0.00000,1,2,   0.00,   1,1.0000
   155,    156,'1 ', 2.40000E-3, 3.32000E-2,   0.58490,    0.00,    0.00,    0.00,  0.00000,  0.00000,  0.00000,  0.00000,1,2,   0.00,   1,1.0000
   155,    158,'1 ', 5.20000E-3, 6.02000E-2,   1.01000,    0.00,    0.00,    0.00,  0.00000,  0.00000,  0.00000,  0.00000,1,1,   0.00,   1,1.0000
   155,    158,'2 ', 4.90000E-3, 5.37000E-2,   0.88430,    0.00,    0.00,    0.00,  0.00000,  0.00000,  0.00000,  0.00000,1,1,   0.00,   1,1.0000
   155,    160,'1 ', 1.70000E-3, 2.25000E-2,   0.39920,    0.00,    0.00,    0.00,  0.00000,  0.00000,  0.00000,  0.00000,1,1,   0.00,   1,1.0000
   155,    160,'2 ', 2.10000E-3, 2.38000E-2,   0.38450,    0.00,    0.00,    0.00,  0.00000,  0.00000,  0.00000,  0.00000,1,1,   0.00,   1,1.0000
   155,    165,'1 ', 1.20000E-3, 1.72000E-2,   0.29870,    0.00,    0.00,    0.00,  0.00000,  0.00000,  0.00000,  0.00000,1,1,   0.00,   1,1.0000
   155,    167,'1 ', 8.00000E-4, 1.06000E-2,   0.20390,    0.00,    0.00,    0.00,  0.00000,  0.00000,  0.00000,  0.00000,1,1,   0.00,   1,1.0000
   156,    167,'1 ', 1.60000E-3, 2.26000E-2,   0.38100,    0.00,    0.00,    0.00,  0.00000,  0.00000,  0.00000,  0.00000,1,1,   0.00,   1,1.0000
   157,    161,'1 ', 1.08000E-2, 9.65000E-2,   0.32960,    0.00,    0.00,    0.00,  0.00000,  0.00000,  0.00000,  0.00000,1,1,   0.00,   1,1.0000
   158,    164,'1 ', 9.60000E-3, 8.78000E-2,   1.42650,    0.00,    0.00,    0.00,  0.00000,  0.00000,  0.00000,  0.00000,1,1,   0.00,   1,1.0000
   158,    165,'1 ', 3.40000E-3, 3.92000E-2,   0.65240,    0.00,    0.00,    0.00,  0.00000,  0.00000,  0.00000,  0.00000,1,1,   0.00,   1,1.0000
   158,    166,'1 ', 3.40000E-3, 3.74000E-2,   0.62080,    0.00,    0.00,    0.00,  0.00000,  0.00000,  0.00000,  0.00000,1,1,   0.00,   1,1.0000
   158,    166,'2 ', 3.40000E-3, 3.72000E-2,   0.61820,    0.00,    0.00,    0.00,  0.00000,  0.00000,  0.00000,  0.00000,1,1,   0.00,   1,1.0000
   160,    166,'1 ', 3.80000E-3, 3.40000E-2,   0.58240,    0.00,    0.00,    0.00,  0.00000,  0.00000,  0.00000,  0.00000,1,1,   0.00,   1,1.0000
   160,    166,'2 ', 3.20000E-3, 3.49000E-2,   0.57220,    0.00,    0.00,    0.00,  0.00000,  0.00000,  0.00000,  0.00000,1,1,   0.00,   1,1.0000
   168,    169,'1 ', 1.03000E-3, 2.33800E-2,   1.58040,    0.00,    0.00, 3020.00,  0.00000,  0.00000,  0.00000,  0.00000,1,1,   0.00,   1,1.0000
   170,    171,'1 ', 1.07000E-3, 2.47000E-2,   1.52700,    0.00,    0.00, 3020.00,  0.00000,  0.00000,  0.00000,  0.00000,1,1,   0.00,   1,1.0000
   172,    173,'1 ', 1.03000E-3, 3.23000E-2,   2.79600,    0.00,    0.00,    0.00,  0.00000,  0.00000,  0.00000,  0.00000,1,1,   0.00,   1,1.0000
...
 0 /End of Branch data, Begin Transformer data
     2,     3,     0,'1 ',1,1,1, 0.00000E+0, 0.00000E+0,2,'            ',1,   1,1.0000
 1.46000E-5, 1.46000E-2,   100.00
1.00000,   0.000,   0.000,     0.00,     0.00,     0.00, 0,      0, 1.50000, 0.51000, 1.50000, 0.51000, 159, 0, 0.00000, 0.00000,  0.000
1.00000,   0.000
     2,     4,     0,'1 ',1,1,1, 0.00000E+0, 0.00000E+0,2,'            ',1,   1,1.0000
 1.73000E-5, 1.73000E-2,   100.00
1.00000,   0.000,   0.000,     0.00,     0.00,     0.00, 0,      0, 1.50000, 0.51000, 1.50000, 0.51000, 159, 0, 0.00000, 0.00000,  0.000
1.00000,   0.000
     5,     6,     0,'1 ',1,1,1, 0.00000E+0, 0.00000E+0,2,'            ',1,   1,1.0000
 1.23800E-5, 1.23800E-2,   100.00
1.00000,   0.000,   0.000,     0.00,     0.00,     0.00, 0,      0, 1.50000, 0.51000, 1.50000, 0.51000, 159, 0, 0.00000, 0.00000,  0.000
1.00000,   0.000
     5,    11,     0,'1 ',1,1,1, 0.00000E+0, 0.00000E+0,2,'            ',1,   1,1.0000
 1.50000E-5, 1.50000E-2,   100.00
1.00000,   0.000,   0.000,     0.00,     0.00,     0.00, 0,      0, 1.50000, 0.51000, 1.50000, 0.51000, 159, 0, 0.00000, 0.00000,  0.000
1.00000,   0.000
     7,     8,     0,'1 ',1,1,1, 0.00000E+0, 0.00000E+0,2,'            ',1,   1,1.0000
 1.10000E-5, 1.10000E-2,   100.00
1.00000,   0.000,   0.000,     0.00,     0.00,     0.00, 0,      0, 1.50000, 0.51000, 1.50000, 0.51000, 159, 0, 0.00000, 0.00000,  0.000
1.00000,   0.000
     7,     8,     0,'2 ',1,1,1, 0.00000E+0, 0.00000E+0,2,'            ',1,   1,1.0000
 1.10000E-5, 1.10000E-2,   100.00
...